&setup_nml
    days_per_year  = 365
    use_leap_years = .false.
    year_init      = 2015
    istep0         = 21504
    dt             = 450
    npt            = 10560
    ndtd           = 1
    runtype        = 'continue'
    ice_ic         = 'none'
    restart        = .true.
    restart_ext    = .false.
    use_restart_time = .false.
    restart_format = 'nc'
    lcdf64         = .false.
    numin          = 21
    numax          = 89
    restart_dir    = './restart/'
    restart_file   = 'iced'
    pointer_file   = './ice.restart_file'
    dumpfreq       = 'd'
    dumpfreq_n     = 1
    dump_last      = .false.
    bfbflag        = 'off'
    diagfreq       = 1
    diag_type      = 'stdout'
    diag_file      = 'ice_diag.d'
    print_global   = .false.
    print_points   = .false.
    latpnt(1)      =  82.81
    lonpnt(1)      =  16.37
    latpnt(2)      =  82.40
    lonpnt(2)      =  15.18
    dbug           = .false.
    histfreq       = 'd','x','x','x','x'
    histfreq_n     =  1 , 1 , 1 , 1 , 1
    hist_avg       = .true.
    history_dir    = './history/'
    history_file   = 'iceh'
    write_ic       = .true.
    incond_dir     = './history/'
    incond_file    = 'iceh_ic'
    version_name   = 'CICE_6.1.0'
/

&grid_nml
    grid_format  = 'bin'
    grid_type    = 'rectangular'
    grid_file    = 'grid'
    kmt_file     = 'kmt'
    bathymetry_file = '/glade/p/cesm/pcwg_dev/CICE_data/grid/gx3/global_gx3.bathy.nc'
    use_bathymetry = .false.
    gridcpl_file = 'unknown_gridcpl_file'
    kcatbound    = -1
    dxrect         = 30.e1
    dyrect         = 30.e1
    close_boundaries = .true.
    ncat         = 1
    nfsd         = 1
    nilyr        = 15
    nslyr        = 1
    nblyr        = 15
/

&tracer_nml
    n_aero       = 1
    n_zaero      = 0
    n_algae      = 1
    n_doc        = 0
    n_dic        = 0
    n_don        = 1
    n_fed        = 0
    n_fep        = 0
    tr_iage      = .false.
    restart_age  = .false.
    tr_FY        = .false.
    restart_FY   = .false.
    tr_lvl       = .true.
    restart_lvl  = .false.
    tr_pond_cesm = .false.
    restart_pond_cesm = .false.
    tr_pond_topo = .false.
    restart_pond_topo = .false.
    tr_pond_lvl  = .true.
    restart_pond_lvl  = .false.
    tr_aero      = .false.
    restart_aero = .false.
    tr_fsd       = .false.
    restart_fsd  = .false.
/

&thermo_nml
    kitd              = 0
    ktherm            = 2
    conduct           = 'bubbly'
    a_rapid_mode      =  0.5e-3
    Rac_rapid_mode    =    10.0
    aspect_rapid_mode =     1.0
    dSdt_slow_mode    = -5.0e-8
    phi_c_slow_mode   =    0.05
    phi_i_mushy       =    0.85
/

&dynamics_nml
    kdyn            = 0
    ndte            = 120
    revised_evp     = .false.
    kevp_kernel     = 0
    brlx            = 300.0
    arlx            = 300.0
    advection       = 'remap'
    kstrength       = 1
    krdg_partic     = 1
    krdg_redist     = 1
    mu_rdg          = 3
    Cf              = 17.
    Ktens           = 0.
    e_ratio         = 2.
    basalstress     = .false.
    k1              = 8.
    coriolis        = 'latitude'
    kridge          = 1
    ktransport      = 1
/

&shortwave_nml
    shortwave       = 'dEdd'
    albedo_type     = 'ccsm3'
    albicev         = 0.78
    albicei         = 0.36
    albsnowv        = 0.98
    albsnowi        = 0.70 
    ahmax           = 0.3
    R_ice           = 0.
    R_pnd           = 0.
    R_snw           = 0.8
    dT_mlt          = 1.5
    rsnw_mlt        = 1500.
    kalg            = 0.6
/

&ponds_nml
    hp1             = 0.01
    hs0             = 0.
    hs1             = 0.03
    dpscale         = 1.e-3
    frzpnd          = 'hlid'
    rfracmin        = 0.15
    rfracmax        = 1.
    pndaspect       = 0.8
/

&forcing_nml
    formdrag        = .false.
    atmbndy         = 'default'
    calc_strair     = .true.
    calc_Tsfc       = .true.
    highfreq        = .false.
    natmiter        = 5
    ustar_min       = 0.0005
    emissivity      = 0.95
    fbot_xfer_type  = 'constant'
    update_ocn_f    = .false.
    l_mpond_fresh   = .false.
    tfrz_option     = 'mushy'
    oceanmixed_ice  = .true.
    wave_spec_type  = 'none'
    wave_spec_file  = 'unknown_wave_spec_file'
    nfreq           = 25
    restore_ice     = .false.
    restore_ocn     = .true.
    trestore        =  1
    precip_units    = 'mm_per_sec'
    default_season  = 'winter'
    atm_data_type   = 'ISPOL'
    ocn_data_type   = 'NICE'
    bgc_data_type   = 'ISPOL'
    fe_data_type    = 'default'
    ice_data_type   = 'default'
    fyear_init      = 2015
    ycycle          = 1
    atm_data_format = 'nc'
    atm_data_dir    = '/cluster/home/pduarte/pduarte8/cice-tutorial/cases/Forcing/NICE_2015'
    bgc_data_dir    = '/cluster/home/pduarte/pduarte8/cice-tutorial/cases/Forcing/NICE_2015/'
    ocn_data_format = 'nc'
    ocn_data_dir    = '/cluster/home/pduarte/pduarte8/cice-tutorial/cases/Forcing/NICE_2015/'
    oceanmixed_file = 'oceanmixed_daily.nc'
/

&domain_nml
    nprocs = 1
    nx_global         = 5
    ny_global         = 5
    block_size_x      = 5
    block_size_y      = 5
    max_blocks        = 1
    processor_shape   = 'square-ice'
    distribution_type = 'cartesian'
    distribution_wght = 'latitude'
    ew_boundary_type  = 'open'
    ns_boundary_type  = 'open'
    maskhalo_dyn      = .false.
    maskhalo_remap    = .false.
    maskhalo_bound    = .false.
/

&zbgc_nml
    tr_brine        = .true.
    restart_hbrine  = .false.
    tr_zaero        = .false.
    modal_aero      = .false.
    skl_bgc         = .false.
    z_tracers       = .true.
    dEdd_algae      = .false.
    solve_zbgc      = .true.
    bgc_flux_type   = 'Jin2006'
    restore_bgc     = .false.
    restart_bgc     = .false.
    scale_bgc       = .false.
    solve_zsal      = .false.
    restart_zsal    = .false.
    tr_bgc_Nit      = .true.
    tr_bgc_C        = .false.
    tr_bgc_chl      = .false.
    tr_bgc_Am       = .true.
    tr_bgc_Sil      = .true.
    tr_bgc_DMS      = .false.
    tr_bgc_PON      = .false.
    tr_bgc_hum      = .false.
    tr_bgc_DON      = .false.
    tr_bgc_Fe       = .false. 
    grid_o          = 0.1
    grid_o_t        = 0.006
    l_sk            = 0.035
    grid_oS         = 0.0
    l_skS           = 0.028
    phi_snow        = -0.3
    initbio_frac    = 0.8
    frazil_scav     = 0.8  
    ratio_Si2N_diatoms = 1.0                         
    ratio_Si2N_sp      = 0.0
    ratio_Si2N_phaeo   = 0.0
    ratio_S2N_diatoms  = 0.03  
    ratio_S2N_sp       = 0.03 
    ratio_S2N_phaeo    = 0.03
    ratio_Fe2C_diatoms = 0.0033
    ratio_Fe2C_sp      = 0.0033
    ratio_Fe2C_phaeo   = 0.1
    ratio_Fe2N_diatoms = 0.023 
    ratio_Fe2N_sp      = 0.023
    ratio_Fe2N_phaeo   = 0.7
    ratio_Fe2DON       = 0.023
    ratio_Fe2DOC_s     = 0.1
    ratio_Fe2DOC_l     = 0.033
    fr_resp            = 0.05
    tau_min            = 5200.0
    tau_max            = 173000.0
    algal_vel          = 0.0000005
    R_dFe2dust         = 0.035
    dustFe_sol         = 0.005
    chlabs_diatoms     = 0.03
    chlabs_sp          = 0.01
    chlabs_phaeo       = 0.05
    alpha2max_low_diatoms = 0.3
    alpha2max_low_sp      = 0.2
    alpha2max_low_phaeo   = 0.67
    beta2max_diatoms   = 0.002
    beta2max_sp        = 0.001
    beta2max_phaeo     = 0.01
    mu_max_diatoms     = 0.81
    mu_max_sp          = 0.41
    mu_max_phaeo       = 0.851
    grow_Tdep_diatoms  = 0.06
    grow_Tdep_sp       = 0.06
    grow_Tdep_phaeo    = 0.06
    fr_graze_diatoms   = 0.0
    fr_graze_sp        = 0.1
    fr_graze_phaeo     = 0.1
    mort_pre_diatoms   = 0.007
    mort_pre_sp        = 0.007
    mort_pre_phaeo     = 0.007
    mort_Tdep_diatoms  = 0.03
    mort_Tdep_sp       = 0.03
    mort_Tdep_phaeo    = 0.03
    k_exude_diatoms    = 0.0
    k_exude_sp         = 0.0
    k_exude_phaeo      = 0.0
    K_Nit_diatoms      = 1.0
    K_Nit_sp           = 1.0
    K_Nit_phaeo        = 1.0
    K_Am_diatoms       = 0.3
    K_Am_sp            = 0.3
    K_Am_phaeo         = 0.3
    K_Sil_diatoms      = 2.2
    K_Sil_sp           = 0.0
    K_Sil_phaeo        = 0.0
    K_Fe_diatoms       = 1.0
    K_Fe_sp            = 0.2
    K_Fe_phaeo         = 0.1
    f_don_protein      = 0.6
    kn_bac_protein     = 0.03
    f_don_Am_protein   = 0.25
    f_doc_s            = 0.4
    f_doc_l            = 0.4
    f_exude_s          = 1.0
    f_exude_l          = 1.0
    k_bac_s            = 0.03
    k_bac_l            = 0.03
    T_max              = 0.0
    fsal               = 1.0
    op_dep_min         = 0.1
    fr_graze_s         = 0.5
    fr_graze_e         = 0.5
    fr_mort2min        = 0.5
    fr_dFe             = 0.3
    k_nitrif           = 0.0
    t_iron_conv        = 3065.0
    max_loss           = 0.9
    max_dfe_doc1       = 0.2
    fr_resp_s          = 0.75
    y_sk_DMS           = 0.5
    t_sk_conv          = 3.0
    t_sk_ox            = 10.0
    algaltype_diatoms  = 0.0
    algaltype_sp       = 0.5
    algaltype_phaeo    = 0.5
    nitratetype        = -1.0
    ammoniumtype       = 1.0
    silicatetype       = -1.0
    dmspptype          = 0.5
    dmspdtype          = -1.0
    humtype            = 1.0
    doctype_s          = 0.5
    doctype_l          = 0.5
    dontype_protein    = 0.5
    fedtype_1          = 0.5
    feptype_1          = 0.5
    zaerotype_bc1      = 1.0
    zaerotype_bc2      = 1.0
    zaerotype_dust1    = 1.0
    zaerotype_dust2    = 1.0
    zaerotype_dust3    = 1.0
    zaerotype_dust4    = 1.0
    ratio_C2N_diatoms  = 7.0
    ratio_C2N_sp       = 7.0
    ratio_C2N_phaeo    = 7.0
    ratio_chl2N_diatoms= 2.1
    ratio_chl2N_sp     = 1.1
    ratio_chl2N_phaeo  = 0.84
    F_abs_chl_diatoms  = 2.0
    F_abs_chl_sp       = 4.0
    F_abs_chl_phaeo    = 5.0
    ratio_C2N_proteins = 7.0
    Limiting_factors_file = .true.
    Bottom_turb_mix = .true.
/

&icefields_nml
    f_tmask        = .true.
    f_blkmask      = .true.
    f_tarea        = .true.
    f_uarea        = .true.
    f_dxt          = .false.
    f_dyt          = .false.
    f_dxu          = .false.
    f_dyu          = .false.
    f_HTN          = .false.
    f_HTE          = .false.
    f_ANGLE        = .false.
    f_ANGLET       = .false.
    f_NCAT         = .false.
    f_VGRDi        = .true.
    f_VGRDs        = .true.
    f_VGRDb        = .true.
    f_VGRDa        = .true.
    f_bounds       = .false.
    f_aice         = 'd' 
    f_hi           = 'd'
    f_hs           = 'd' 
    f_Tsfc         = 'd' 
    f_sice         = 'd' 
    f_uvel         = 'd' 
    f_vvel         = 'd' 
    f_uatm         = 'x' 
    f_vatm         = 'x' 
    f_fswdn        = 'd' 
    f_flwdn        = 'd'
    f_snowfrac     = 'x'
    f_snow         = 'x' 
    f_snow_ai      = 'd' 
    f_rain         = 'x' 
    f_rain_ai      = 'd' 
    f_sst          = 'd' 
    f_sss          = 'd' 
    f_uocn         = 'd' 
    f_vocn         = 'd' 
    f_frzmlt       = 'd'
    f_fswfac       = 'd'
    f_fswint_ai    = 'd'
    f_fswabs       = 'd' 
    f_fswabs_ai    = 'd' 
    f_albsni       = 'd' 
    f_alvdr        = 'x'
    f_alidr        = 'x'
    f_alvdf        = 'x'
    f_alidf        = 'x'
    f_alvdr_ai     = 'x'
    f_alidr_ai     = 'x'
    f_alvdf_ai     = 'x'
    f_alidf_ai     = 'x'
    f_albice       = 'x'
    f_albsno       = 'x'
    f_albpnd       = 'x'
    f_coszen       = 'x'
    f_flat         = 'x' 
    f_flat_ai      = 'd' 
    f_fsens        = 'x' 
    f_fsens_ai     = 'd' 
    f_fswup        = 'd' 
    f_flwup        = 'x' 
    f_flwup_ai     = 'd' 
    f_evap         = 'x' 
    f_evap_ai      = 'd' 
    f_Tair         = 'd' 
    f_Tref         = 'x' 
    f_Qref         = 'x'
    f_congel       = 'd' 
    f_frazil       = 'd' 
    f_snoice       = 'd' 
    f_dsnow        = 'x' 
    f_melts        = 'd'
    f_meltt        = 'd'
    f_meltb        = 'd'
    f_meltl        = 'd'
    f_fresh        = 'x'
    f_fresh_ai     = 'd'
    f_fsalt        = 'x'
    f_fsalt_ai     = 'd'
    f_fbot         = 'd'
    f_fhocn        = 'x' 
    f_fhocn_ai     = 'd' 
    f_fswthru      = 'x' 
    f_fswthru_ai   = 'd' 
    f_fsurf_ai     = 'x'
    f_fcondtop_ai  = 'x'
    f_fmeltt_ai    = 'x' 
    f_strairx      = 'x' 
    f_strairy      = 'x' 
    f_strtltx      = 'x' 
    f_strtlty      = 'x' 
    f_strcorx      = 'x' 
    f_strcory      = 'x' 
    f_strocnx      = 'd' 
    f_strocny      = 'd' 
    f_strintx      = 'x' 
    f_strinty      = 'x'
    f_taubx        = 'x'
    f_tauby        = 'x'
    f_strength     = 'x'
    f_divu         = 'x'
    f_shear        = 'x'
    f_sig1         = 'x' 
    f_sig2         = 'x' 
    f_sigP         = 'x' 
    f_dvidtt       = 'x' 
    f_dvidtd       = 'x' 
    f_daidtt       = 'x'
    f_daidtd       = 'x' 
    f_dagedtt      = 'x'
    f_dagedtd      = 'x' 
    f_mlt_onset    = 'd'
    f_frz_onset    = 'd'
    f_hisnap       = 'x'
    f_aisnap       = 'x'
    f_trsig        = 'x'
    f_icepresent   = 'x'
    f_iage         = 'd'
    f_FY           = 'd'
    f_aicen        = 'd'
    f_vicen        = 'd'
    f_vsnon        = 'd'
    f_snowfracn    = 'x'
    f_keffn_top    = 'x'
    f_Tinz         = 'd'
    f_Sinz         = 'd'
    f_Tsnz         = 'd'
    f_fsurfn_ai    = 'x'
    f_fcondtopn_ai = 'x'
    f_fmelttn_ai   = 'x'
    f_flatn_ai     = 'x'
    f_fsensn_ai     = 'x'
/

&icefields_mechred_nml
    f_alvl         = 'x'
    f_vlvl         = 'x'
    f_ardg         = 'x'
    f_vrdg         = 'x'
    f_dardg1dt     = 'x'
    f_dardg2dt     = 'x'
    f_dvirdgdt     = 'x'
    f_opening      = 'x'
    f_ardgn        = 'x'
    f_vrdgn        = 'x'
    f_dardg1ndt    = 'x'
    f_dardg2ndt    = 'x'
    f_dvirdgndt    = 'x'
    f_krdgn        = 'x'
    f_aparticn     = 'x'
    f_aredistn     = 'x'
    f_vredistn     = 'x'
    f_araftn       = 'x'
    f_vraftn       = 'x'
/

&icefields_pond_nml
    f_apondn       = 'x'
    f_apeffn       = 'x'
    f_hpondn       = 'x'
    f_apond        = 'x'
    f_hpond        = 'x'
    f_ipond        = 'x'
    f_apeff        = 'x'
    f_apond_ai     = 'd'
    f_hpond_ai     = 'd'
    f_ipond_ai     = 'd'
    f_apeff_ai     = 'd'
/

&icefields_bgc_nml
    f_faero_atm    = 'x'
    f_faero_ocn    = 'x'
    f_aero         = 'x'  
    f_fbio         = 'd'
    f_fbio_ai      = 'd'
    f_zaero        = 'x'
    f_bgc_S        = 'm'
    f_bgc_N        = 'd'
    f_bgc_C        = 'x'
    f_bgc_DOC      = 'd'
    f_bgc_DIC      = 'x'
    f_bgc_chl      = 'd'
    f_bgc_Nit      = 'd'
    f_bgc_Am       = 'd'
    f_bgc_Sil      = 'd'
    f_bgc_DMSPp    = 'x'
    f_bgc_DMSPd    = 'x'
    f_bgc_DMS      = 'x'
    f_bgc_DON      = 'd'  
    f_bgc_Fe       = 'm'  
    f_bgc_hum      = 'm'   
    f_bgc_PON      = 'd'
    f_bgc_ml       = 'd'
    f_upNO         = 'd'
    f_upNH         = 'd'
    f_bTin         = 'x'
    f_bphi         = 'd' 
    f_iDi          = 'd'
    f_iki          = 'm'
    f_fbri         = 'd'  
    f_hbri         = 'd'
    f_zfswin       = 'd'
    f_bionet       = 'd'
    f_biosnow      = 'm'
    f_grownet      = 'd'
    f_PPnet        = 'd'
    f_algalpeak    = 'd'
    f_zbgc_frac    = 'd'
/

&icefields_drag_nml
    f_drag         = 'x'
    f_Cdn_atm      = 'x'
    f_Cdn_ocn      = 'x'
/

&icefields_fsd_nml
    f_fsdrad       = 'x'
    f_fsdperim     = 'x'
    f_afsd         = 'x'
    f_afsdn        = 'x'
    f_dafsd_newi   = 'x'
    f_dafsd_latg   = 'x'
    f_dafsd_latm   = 'x'
    f_dafsd_wave   = 'x'
    f_dafsd_weld   = 'x'
    f_wave_sig_ht  = 'x'
    f_aice_ww      = 'x'
    f_diam_ww      = 'x'
    f_hice_ww      = 'x'
/
